/batch,list
/gst,on
/title,Dielectric in Waveguide
/filname,hfth
/view,1,2,1,3

WGW      = 2.8*0.0254                   ! Waveguide width
WGH      = 1.3*0.0254                   ! Waveguide height
WGL      = 5.0*0.0254                   ! Waveguide length
LS       = 0.05                         ! Loss tangent at T0
FREQ     = 2.45E+09                     ! 2.45 GHz
ELESIZ   = 0.0075                       ! Element size


/prep7                                  ! HF Emag model

                                        ! Waveguide geometry
block,-WGW/2,WGW/2,-WGH/2,WGH/2,-WGL/2,WGL/2
                                        ! Dielectric geometry
block,-WGW/4,WGW/4,0,WGH/2,-WGL/4,WGL/4
vovl,all
vglu,all

et,1,119                                ! 3D 10-node tet HF Emag solid
et,11,0                                 ! Null element type
type,1
mat,1
esize,ELESIZ
vsel,s,volu,,3
vmesh,all

mat,2
vsel,s,volu,,2
vmesh,all

                                        ! Waveguide properties
mp,PERX,1,1.0                           ! Electrical permittivity
mp,MURX,1,1.0                           ! Magnetic relative permeability

                                        ! Dielectric properties
mp,PERX,2,5.0                           ! Electrical permittivity
mp,MURX,2,1.0                           ! Magnetic relative permeability
mp,LSST,2,LS                            ! Dielectric loss tangent

csys,0                                  ! E-field ground planes
asel,s,loc,x,-WGW/2
asel,a,loc,x, WGW/2
asel,a,loc,y,-WGH/2
asel,a,loc,y, WGH/2
asel,a,loc,z, WGL/2
nsla,s,1
d,all,AX,0
alls

local,11,0,0,0,-WGL/2,                 ! Local CS at inlet port
asel,s,loc,z,0
sfa,all,,port,1                         ! Define port 1
hfport,1,rect,11,TE10,hard,wgw,wgh,1    ! Specify port options
alls

physics,write,hfemag,emag,dat           ! Write HF Emag physics file
! sfdele,all,port ! Delete port after written hfemag
! physics,clear
! physics,read,hfemag,emag,dat
fini

/solu
antype,harmic                           ! Harmonic analysis
eqslv,iccg                              ! ICCG solver
harfrq,FREQ                             ! Specify frequency
solve
save
fini                               


/prep7                                  ! Thermal model
physics,clear
et,1,0                                  ! Null element type
et,11,87                                ! 3D 10-node tet thermal solid

esel,s,mat,,2                           ! Change HF elements to thermal
nsle,s
emod,all,type,11
mp,KXX,2,0.001                          ! Thermal conductivity

nsel,s,loc,y,0
sf,all,conv,10,2                        ! Convection at bottom of dielectric
alls

physics,write,thermal,therm,dat ! Write thermal physics file
! physics,clear
! physics,read,thermal,therm,dat
fini

/solu
antyp,static                            ! Static analysis
ldread,HGEN,last,,,2,hfth,rmg           ! Read HGEN loads
solve
! save
fini
