finish
/clear

*dim,MY_OUTPUT,array,4
MY_OUTPUT(1)=5,10,15,20

/prep7
et,1,185
r,1
mp,ex  ,1,10e6
mp,nuxy,1,0.3

block,,1,,1,,1
vmesh,all

nsel,s,loc,x,0
d,all,all
nsel,s,loc,x,1
sf,all,pres,1000

allsel,all
finish

/solu
nlgeom,on
rescon,define,none
outres,all,%MY_OUTPUT%
nsubst,100,1e6,1

time,100
solve

finish

/post1
set,list
finish
